Version 4
SHEET 1 900 680
WIRE -224 0 -224 -32
WIRE -208 0 -224 0
WIRE 512 80 480 80
WIRE 624 80 592 80
WIRE 688 80 624 80
WIRE 784 80 768 80
WIRE 224 96 192 96
WIRE 512 112 480 112
WIRE -320 176 -384 176
WIRE 80 176 -320 176
WIRE 192 176 192 96
WIRE 192 176 160 176
WIRE 480 176 192 176
WIRE 512 176 512 112
WIRE 512 176 480 176
WIRE 512 192 512 176
WIRE 512 272 480 272
WIRE -304 288 -352 288
WIRE -176 288 -224 288
WIRE -144 288 -176 288
WIRE -48 288 -64 288
WIRE 224 288 208 288
WIRE 496 304 480 304
WIRE -48 320 -64 320
WIRE 128 320 128 288
WIRE 128 320 80 320
WIRE -64 400 -64 320
WIRE 128 400 -64 400
WIRE 128 416 128 400
FLAG -224 -32 0
FLAG -384 256 0
FLAG -320 240 0
FLAG -352 368 0
FLAG -176 368 0
FLAG 128 496 0
FLAG 496 304 0
FLAG 624 144 0
FLAG 784 160 0
FLAG -48 352 Vcc
IOPIN -48 352 In
FLAG 80 288 Vee
IOPIN 80 288 In
FLAG -304 0 Vee
IOPIN -304 0 Out
FLAG -128 0 Vcc
IOPIN -128 0 Out
FLAG 480 176 uds
FLAG 624 80 out
SYMBOL voltage -352 272 R0
WINDOW 3 -164 131 Left 2
WINDOW 123 0 0 Left 0
WINDOW 39 0 0 Left 0
SYMATTR Value PULSE(0 1 0 5n 5n 500n 1u)
SYMATTR InstName V1
SYMBOL voltage -384 160 R0
WINDOW 123 0 0 Left 0
WINDOW 39 0 0 Left 0
SYMATTR InstName V2
SYMATTR Value 12
SYMBOL res 768 64 R0
SYMATTR InstName R1
SYMATTR Value 25
SYMBOL res 112 304 R0
SYMATTR InstName R2
SYMATTR Value 1.2k
SYMBOL res 112 400 R0
SYMATTR InstName R3
SYMATTR Value 350
SYMBOL res -48 272 R90
WINDOW 0 0 56 VBottom 2
WINDOW 3 32 56 VTop 2
SYMATTR InstName R4
SYMATTR Value 50
SYMBOL res -192 272 R0
SYMATTR InstName R5
SYMATTR Value 50
SYMBOL res 224 272 R90
WINDOW 0 0 56 VBottom 2
WINDOW 3 32 56 VTop 2
SYMATTR InstName R6
SYMATTR Value 5
SYMBOL ind 176 160 R90
WINDOW 0 5 56 VBottom 2
WINDOW 3 32 56 VTop 2
SYMATTR InstName L1
SYMATTR Value 3.25µ
SYMBOL cap -336 176 R0
SYMATTR InstName C1
SYMATTR Value 10µ
SYMBOL cap 608 80 R0
SYMATTR InstName C2
SYMATTR Value 12µ
SYMATTR SpiceLine Rser=50m Lser=1n
SYMATTR SpiceLine2 IC=24
SYMBOL ind 608 64 R90
WINDOW 0 5 56 VBottom 2
WINDOW 3 32 56 VTop 2
SYMATTR InstName L2
SYMATTR Value 20n
SYMATTR SpiceLine Rser=50m
SYMBOL ind 528 288 R180
WINDOW 0 36 80 Left 2
WINDOW 3 36 40 Left 2
SYMATTR InstName L3
SYMATTR Value 1n
SYMBOL voltage -208 0 R90
WINDOW 123 0 0 Left 0
WINDOW 39 0 0 Left 0
SYMATTR InstName V3
SYMATTR Value 20
SYMBOL voltage -112 0 R90
WINDOW 123 0 0 Left 0
WINDOW 39 0 0 Left 0
SYMATTR InstName V4
SYMATTR Value 20
SYMBOL ind 784 64 R90
WINDOW 0 5 56 VBottom 2
WINDOW 3 32 56 VTop 2
SYMATTR InstName L4
SYMATTR Value 1n
SYMBOL AutoGenerated\\ADA4870 16 320 R0
SYMATTR InstName U4
SYMBOL AutoGenerated\\EPC2020 352 96 R0
SYMATTR InstName U5
SYMBOL AutoGenerated\\EPC2020 352 288 R0
SYMATTR InstName U6
SYMBOL voltage -208 288 R90
WINDOW 0 -32 56 VBottom 2
WINDOW 3 32 56 VTop 2
WINDOW 123 0 0 Left 0
WINDOW 39 0 0 Left 0
SYMATTR InstName V5
SYMATTR Value SINE(0 {Amp} 30meg 0 0 {Phi})
TEXT -416 520 Left 2 !.tran 0 5u 4u
TEXT -416 560 Left 2 !.step param Amp list 1.8 2.0 2.4 2.6 3.0\n.step param Phi list -150 120
TEXT -416 624 Left 2 !.four 30meg 1 V(uds)
